# ***************
# Open boundaries
# ***************
 &OBCS_PARM01
 OB_Jsouth =   69*1,
 OB_Iwest  =   66*1,
#
 useOBCSprescribe=.TRUE.,
#
 OBSsFile='obcs/GulfGuinea_69x66x50_SALT_South',
 OBStFile='obcs/GulfGuinea_69x66x50_THETA_South',
 OBSuFile='obcs/GulfGuinea_69x66x50_U_South',
 OBSvFile='obcs/GulfGuinea_69x66x50_V_South',
 OBSptrFile(1)='obcs/GulfGuinea_69x66x50_DIC_South_bling',
 OBSptrFile(2)='obcs/GulfGuinea_69x66x50_ALK_South_bling',
 OBSptrFile(3)='obcs/GulfGuinea_69x66x50_O2_South_bling',
 OBSptrFile(4)='obcs/GulfGuinea_69x66x50_NO3_South_bling',
 OBSptrFile(5)='obcs/GulfGuinea_69x66x50_PO4_South_bling',
 OBSptrFile(6)='obcs/GulfGuinea_69x66x50_FeT_South_bling',
 OBSptrFile(7)='obcs/GulfGuinea_69x66x50_DON_South_bling',
 OBSptrFile(8)='obcs/GulfGuinea_69x66x50_DOP_South_bling',
 OBSptrFile(9)='obcs/GulfGuinea_69x66x50_phy_South_bling',
#
 OBWsFile='obcs/GulfGuinea_69x66x50_SALT_West',
 OBWtFile='obcs/GulfGuinea_69x66x50_THETA_West',
 OBWuFile='obcs/GulfGuinea_69x66x50_U_West',
 OBWvFile='obcs/GulfGuinea_69x66x50_V_West',
 OBWptrFile(1)='obcs/GulfGuinea_69x66x50_DIC_West_bling',
 OBWptrFile(2)='obcs/GulfGuinea_69x66x50_ALK_West_bling',
 OBWptrFile(3)='obcs/GulfGuinea_69x66x50_O2_West_bling',
 OBWptrFile(4)='obcs/GulfGuinea_69x66x50_NO3_West_bling',
 OBWptrFile(5)='obcs/GulfGuinea_69x66x50_PO4_West_bling',
 OBWptrFile(6)='obcs/GulfGuinea_69x66x50_FeT_West_bling',
 OBWptrFile(7)='obcs/GulfGuinea_69x66x50_DON_West_bling',
 OBWptrFile(8)='obcs/GulfGuinea_69x66x50_DOP_West_bling',
 OBWptrFile(9)='obcs/GulfGuinea_69x66x50_phy_West_bling',
#
 &
# Sponge layer parameters
 &OBCS_PARM05
 &
